* NGSPICE file created from password_cracker.ext - technology: sky130A

* Black-box entry subcircuit for sky130_fd_sc_hd__fill_1 abstract view
.subckt sky130_fd_sc_hd__fill_1 VGND VNB VPB VPWR
.ends

* Black-box entry subcircuit for sky130_fd_sc_hd__buf_2 abstract view
.subckt sky130_fd_sc_hd__buf_2 A VGND VNB VPB VPWR X
.ends

* Black-box entry subcircuit for sky130_fd_sc_hd__decap_8 abstract view
.subckt sky130_fd_sc_hd__decap_8 VGND VNB VPB VPWR
.ends

* Black-box entry subcircuit for sky130_fd_sc_hd__buf_6 abstract view
.subckt sky130_fd_sc_hd__buf_6 A VGND VNB VPB VPWR X
.ends

* Black-box entry subcircuit for sky130_fd_sc_hd__fill_2 abstract view
.subckt sky130_fd_sc_hd__fill_2 VGND VNB VPB VPWR
.ends

* Black-box entry subcircuit for sky130_fd_sc_hd__o22a_1 abstract view
.subckt sky130_fd_sc_hd__o22a_1 A1 A2 B1 B2 VGND VNB VPB VPWR X
.ends

* Black-box entry subcircuit for sky130_fd_sc_hd__and2b_1 abstract view
.subckt sky130_fd_sc_hd__and2b_1 A_N B VGND VNB VPB VPWR X
.ends

* Black-box entry subcircuit for sky130_fd_sc_hd__xnor2_1 abstract view
.subckt sky130_fd_sc_hd__xnor2_1 A B VGND VNB VPB VPWR Y
.ends

* Black-box entry subcircuit for sky130_ef_sc_hd__decap_12 abstract view
.subckt sky130_ef_sc_hd__decap_12 VGND VNB VPB VPWR
.ends

* Black-box entry subcircuit for sky130_fd_sc_hd__a21bo_1 abstract view
.subckt sky130_fd_sc_hd__a21bo_1 A1 A2 B1_N VGND VNB VPB VPWR X
.ends

* Black-box entry subcircuit for sky130_fd_sc_hd__decap_3 abstract view
.subckt sky130_fd_sc_hd__decap_3 VGND VNB VPB VPWR
.ends

* Black-box entry subcircuit for sky130_fd_sc_hd__nor2_4 abstract view
.subckt sky130_fd_sc_hd__nor2_4 A B VGND VNB VPB VPWR Y
.ends

* Black-box entry subcircuit for sky130_fd_sc_hd__buf_4 abstract view
.subckt sky130_fd_sc_hd__buf_4 A VGND VNB VPB VPWR X
.ends

* Black-box entry subcircuit for sky130_fd_sc_hd__and2_1 abstract view
.subckt sky130_fd_sc_hd__and2_1 A B VGND VNB VPB VPWR X
.ends

* Black-box entry subcircuit for sky130_fd_sc_hd__or2_2 abstract view
.subckt sky130_fd_sc_hd__or2_2 A B VGND VNB VPB VPWR X
.ends

* Black-box entry subcircuit for sky130_fd_sc_hd__and3_1 abstract view
.subckt sky130_fd_sc_hd__and3_1 A B C VGND VNB VPB VPWR X
.ends

* Black-box entry subcircuit for sky130_fd_sc_hd__or2_1 abstract view
.subckt sky130_fd_sc_hd__or2_1 A B VGND VNB VPB VPWR X
.ends

* Black-box entry subcircuit for sky130_fd_sc_hd__tapvpwrvgnd_1 abstract view
.subckt sky130_fd_sc_hd__tapvpwrvgnd_1 VGND VPWR
.ends

* Black-box entry subcircuit for sky130_fd_sc_hd__nor2_1 abstract view
.subckt sky130_fd_sc_hd__nor2_1 A B VGND VNB VPB VPWR Y
.ends

* Black-box entry subcircuit for sky130_fd_sc_hd__decap_6 abstract view
.subckt sky130_fd_sc_hd__decap_6 VGND VNB VPB VPWR
.ends

* Black-box entry subcircuit for sky130_fd_sc_hd__diode_2 abstract view
.subckt sky130_fd_sc_hd__diode_2 DIODE VGND VNB VPB VPWR
.ends

* Black-box entry subcircuit for sky130_fd_sc_hd__nand2_1 abstract view
.subckt sky130_fd_sc_hd__nand2_1 A B VGND VNB VPB VPWR Y
.ends

* Black-box entry subcircuit for sky130_fd_sc_hd__dfxtp_1 abstract view
.subckt sky130_fd_sc_hd__dfxtp_1 CLK D VGND VNB VPB VPWR Q
.ends

* Black-box entry subcircuit for sky130_fd_sc_hd__a21oi_1 abstract view
.subckt sky130_fd_sc_hd__a21oi_1 A1 A2 B1 VGND VNB VPB VPWR Y
.ends

* Black-box entry subcircuit for sky130_fd_sc_hd__nand3_1 abstract view
.subckt sky130_fd_sc_hd__nand3_1 A B C VGND VNB VPB VPWR Y
.ends

* Black-box entry subcircuit for sky130_fd_sc_hd__clkbuf_1 abstract view
.subckt sky130_fd_sc_hd__clkbuf_1 A VGND VNB VPB VPWR X
.ends

* Black-box entry subcircuit for sky130_fd_sc_hd__o211a_1 abstract view
.subckt sky130_fd_sc_hd__o211a_1 A1 A2 B1 C1 VGND VNB VPB VPWR X
.ends

* Black-box entry subcircuit for sky130_fd_sc_hd__o21ai_1 abstract view
.subckt sky130_fd_sc_hd__o21ai_1 A1 A2 B1 VGND VNB VPB VPWR Y
.ends

* Black-box entry subcircuit for sky130_fd_sc_hd__a21o_1 abstract view
.subckt sky130_fd_sc_hd__a21o_1 A1 A2 B1 VGND VNB VPB VPWR X
.ends

* Black-box entry subcircuit for sky130_fd_sc_hd__decap_4 abstract view
.subckt sky130_fd_sc_hd__decap_4 VGND VNB VPB VPWR
.ends

* Black-box entry subcircuit for sky130_fd_sc_hd__a221o_1 abstract view
.subckt sky130_fd_sc_hd__a221o_1 A1 A2 B1 B2 C1 VGND VNB VPB VPWR X
.ends

* Black-box entry subcircuit for sky130_fd_sc_hd__clkbuf_2 abstract view
.subckt sky130_fd_sc_hd__clkbuf_2 A VGND VNB VPB VPWR X
.ends

* Black-box entry subcircuit for sky130_fd_sc_hd__or3_1 abstract view
.subckt sky130_fd_sc_hd__or3_1 A B C VGND VNB VPB VPWR X
.ends

* Black-box entry subcircuit for sky130_fd_sc_hd__a31o_1 abstract view
.subckt sky130_fd_sc_hd__a31o_1 A1 A2 A3 B1 VGND VNB VPB VPWR X
.ends

* Black-box entry subcircuit for sky130_fd_sc_hd__nand2_2 abstract view
.subckt sky130_fd_sc_hd__nand2_2 A B VGND VNB VPB VPWR Y
.ends

* Black-box entry subcircuit for sky130_fd_sc_hd__a22o_1 abstract view
.subckt sky130_fd_sc_hd__a22o_1 A1 A2 B1 B2 VGND VNB VPB VPWR X
.ends

* Black-box entry subcircuit for sky130_fd_sc_hd__or4_2 abstract view
.subckt sky130_fd_sc_hd__or4_2 A B C D VGND VNB VPB VPWR X
.ends

* Black-box entry subcircuit for sky130_fd_sc_hd__or3b_1 abstract view
.subckt sky130_fd_sc_hd__or3b_1 A B C_N VGND VNB VPB VPWR X
.ends

* Black-box entry subcircuit for sky130_fd_sc_hd__xnor2_4 abstract view
.subckt sky130_fd_sc_hd__xnor2_4 A B VGND VNB VPB VPWR Y
.ends

* Black-box entry subcircuit for sky130_fd_sc_hd__or3_2 abstract view
.subckt sky130_fd_sc_hd__or3_2 A B C VGND VNB VPB VPWR X
.ends

* Black-box entry subcircuit for sky130_fd_sc_hd__dfxtp_4 abstract view
.subckt sky130_fd_sc_hd__dfxtp_4 CLK D VGND VNB VPB VPWR Q
.ends

* Black-box entry subcircuit for sky130_fd_sc_hd__a21boi_1 abstract view
.subckt sky130_fd_sc_hd__a21boi_1 A1 A2 B1_N VGND VNB VPB VPWR Y
.ends

* Black-box entry subcircuit for sky130_fd_sc_hd__mux2_2 abstract view
.subckt sky130_fd_sc_hd__mux2_2 A0 A1 S VGND VNB VPB VPWR X
.ends

* Black-box entry subcircuit for sky130_fd_sc_hd__clkbuf_8 abstract view
.subckt sky130_fd_sc_hd__clkbuf_8 A VGND VNB VPB VPWR X
.ends

* Black-box entry subcircuit for sky130_fd_sc_hd__a311o_1 abstract view
.subckt sky130_fd_sc_hd__a311o_1 A1 A2 A3 B1 C1 VGND VNB VPB VPWR X
.ends

* Black-box entry subcircuit for sky130_fd_sc_hd__xnor2_2 abstract view
.subckt sky130_fd_sc_hd__xnor2_2 A B VGND VNB VPB VPWR Y
.ends

* Black-box entry subcircuit for sky130_fd_sc_hd__and3_2 abstract view
.subckt sky130_fd_sc_hd__and3_2 A B C VGND VNB VPB VPWR X
.ends

* Black-box entry subcircuit for sky130_fd_sc_hd__dfxtp_2 abstract view
.subckt sky130_fd_sc_hd__dfxtp_2 CLK D VGND VNB VPB VPWR Q
.ends

* Black-box entry subcircuit for sky130_fd_sc_hd__xor2_1 abstract view
.subckt sky130_fd_sc_hd__xor2_1 A B VGND VNB VPB VPWR X
.ends

* Black-box entry subcircuit for sky130_fd_sc_hd__a32o_1 abstract view
.subckt sky130_fd_sc_hd__a32o_1 A1 A2 A3 B1 B2 VGND VNB VPB VPWR X
.ends

* Black-box entry subcircuit for sky130_fd_sc_hd__o21ba_1 abstract view
.subckt sky130_fd_sc_hd__o21ba_1 A1 A2 B1_N VGND VNB VPB VPWR X
.ends

* Black-box entry subcircuit for sky130_fd_sc_hd__inv_2 abstract view
.subckt sky130_fd_sc_hd__inv_2 A VGND VNB VPB VPWR Y
.ends

* Black-box entry subcircuit for sky130_fd_sc_hd__or2b_1 abstract view
.subckt sky130_fd_sc_hd__or2b_1 A B_N VGND VNB VPB VPWR X
.ends

* Black-box entry subcircuit for sky130_fd_sc_hd__o221a_1 abstract view
.subckt sky130_fd_sc_hd__o221a_1 A1 A2 B1 B2 C1 VGND VNB VPB VPWR X
.ends

* Black-box entry subcircuit for sky130_fd_sc_hd__o21a_2 abstract view
.subckt sky130_fd_sc_hd__o21a_2 A1 A2 B1 VGND VNB VPB VPWR X
.ends

* Black-box entry subcircuit for sky130_fd_sc_hd__clkbuf_4 abstract view
.subckt sky130_fd_sc_hd__clkbuf_4 A VGND VNB VPB VPWR X
.ends

* Black-box entry subcircuit for sky130_fd_sc_hd__o211a_2 abstract view
.subckt sky130_fd_sc_hd__o211a_2 A1 A2 B1 C1 VGND VNB VPB VPWR X
.ends

* Black-box entry subcircuit for sky130_fd_sc_hd__clkbuf_16 abstract view
.subckt sky130_fd_sc_hd__clkbuf_16 A VGND VNB VPB VPWR X
.ends

* Black-box entry subcircuit for sky130_fd_sc_hd__a211o_1 abstract view
.subckt sky130_fd_sc_hd__a211o_1 A1 A2 B1 C1 VGND VNB VPB VPWR X
.ends

* Black-box entry subcircuit for sky130_fd_sc_hd__dlymetal6s2s_1 abstract view
.subckt sky130_fd_sc_hd__dlymetal6s2s_1 A VGND VNB VPB VPWR X
.ends

* Black-box entry subcircuit for sky130_fd_sc_hd__a311oi_4 abstract view
.subckt sky130_fd_sc_hd__a311oi_4 A1 A2 A3 B1 C1 VGND VNB VPB VPWR Y
.ends

* Black-box entry subcircuit for sky130_fd_sc_hd__o311a_1 abstract view
.subckt sky130_fd_sc_hd__o311a_1 A1 A2 A3 B1 C1 VGND VNB VPB VPWR X
.ends

* Black-box entry subcircuit for sky130_fd_sc_hd__o21bai_2 abstract view
.subckt sky130_fd_sc_hd__o21bai_2 A1 A2 B1_N VGND VNB VPB VPWR Y
.ends

* Black-box entry subcircuit for sky130_fd_sc_hd__mux2_1 abstract view
.subckt sky130_fd_sc_hd__mux2_1 A0 A1 S VGND VNB VPB VPWR X
.ends

* Black-box entry subcircuit for sky130_fd_sc_hd__nand4_1 abstract view
.subckt sky130_fd_sc_hd__nand4_1 A B C D VGND VNB VPB VPWR Y
.ends

* Black-box entry subcircuit for sky130_fd_sc_hd__xor2_2 abstract view
.subckt sky130_fd_sc_hd__xor2_2 A B VGND VNB VPB VPWR X
.ends

* Black-box entry subcircuit for sky130_fd_sc_hd__nor2_2 abstract view
.subckt sky130_fd_sc_hd__nor2_2 A B VGND VNB VPB VPWR Y
.ends

* Black-box entry subcircuit for sky130_fd_sc_hd__or4_1 abstract view
.subckt sky130_fd_sc_hd__or4_1 A B C D VGND VNB VPB VPWR X
.ends

* Black-box entry subcircuit for sky130_fd_sc_hd__or3_4 abstract view
.subckt sky130_fd_sc_hd__or3_4 A B C VGND VNB VPB VPWR X
.ends

* Black-box entry subcircuit for sky130_fd_sc_hd__o211ai_1 abstract view
.subckt sky130_fd_sc_hd__o211ai_1 A1 A2 B1 C1 VGND VNB VPB VPWR Y
.ends

* Black-box entry subcircuit for sky130_fd_sc_hd__o21ai_2 abstract view
.subckt sky130_fd_sc_hd__o21ai_2 A1 A2 B1 VGND VNB VPB VPWR Y
.ends

* Black-box entry subcircuit for sky130_fd_sc_hd__o32a_1 abstract view
.subckt sky130_fd_sc_hd__o32a_1 A1 A2 A3 B1 B2 VGND VNB VPB VPWR X
.ends

* Black-box entry subcircuit for sky130_fd_sc_hd__and2b_2 abstract view
.subckt sky130_fd_sc_hd__and2b_2 A_N B VGND VNB VPB VPWR X
.ends

* Black-box entry subcircuit for sky130_fd_sc_hd__o21a_1 abstract view
.subckt sky130_fd_sc_hd__o21a_1 A1 A2 B1 VGND VNB VPB VPWR X
.ends

* Black-box entry subcircuit for sky130_fd_sc_hd__and4b_4 abstract view
.subckt sky130_fd_sc_hd__and4b_4 A_N B C D VGND VNB VPB VPWR X
.ends

* Black-box entry subcircuit for sky130_fd_sc_hd__nor3_1 abstract view
.subckt sky130_fd_sc_hd__nor3_1 A B C VGND VNB VPB VPWR Y
.ends

* Black-box entry subcircuit for sky130_fd_sc_hd__and4_2 abstract view
.subckt sky130_fd_sc_hd__and4_2 A B C D VGND VNB VPB VPWR X
.ends

* Black-box entry subcircuit for sky130_fd_sc_hd__a31oi_4 abstract view
.subckt sky130_fd_sc_hd__a31oi_4 A1 A2 A3 B1 VGND VNB VPB VPWR Y
.ends

* Black-box entry subcircuit for sky130_fd_sc_hd__nor3b_1 abstract view
.subckt sky130_fd_sc_hd__nor3b_1 A B C_N VGND VNB VPB VPWR Y
.ends

* Black-box entry subcircuit for sky130_fd_sc_hd__o31a_1 abstract view
.subckt sky130_fd_sc_hd__o31a_1 A1 A2 A3 B1 VGND VNB VPB VPWR X
.ends

* Black-box entry subcircuit for sky130_fd_sc_hd__a21oi_2 abstract view
.subckt sky130_fd_sc_hd__a21oi_2 A1 A2 B1 VGND VNB VPB VPWR Y
.ends

* Black-box entry subcircuit for sky130_fd_sc_hd__nor2_8 abstract view
.subckt sky130_fd_sc_hd__nor2_8 A B VGND VNB VPB VPWR Y
.ends

* Black-box entry subcircuit for sky130_fd_sc_hd__a31oi_1 abstract view
.subckt sky130_fd_sc_hd__a31oi_1 A1 A2 A3 B1 VGND VNB VPB VPWR Y
.ends

* Black-box entry subcircuit for sky130_fd_sc_hd__buf_8 abstract view
.subckt sky130_fd_sc_hd__buf_8 A VGND VNB VPB VPWR X
.ends

* Black-box entry subcircuit for sky130_fd_sc_hd__o21ai_4 abstract view
.subckt sky130_fd_sc_hd__o21ai_4 A1 A2 B1 VGND VNB VPB VPWR Y
.ends

* Black-box entry subcircuit for sky130_fd_sc_hd__inv_1 abstract view
.subckt sky130_fd_sc_hd__inv_1 A VGND VNB VPB VPWR Y
.ends

* Black-box entry subcircuit for sky130_fd_sc_hd__a2111o_1 abstract view
.subckt sky130_fd_sc_hd__a2111o_1 A1 A2 B1 C1 D1 VGND VNB VPB VPWR X
.ends

* Black-box entry subcircuit for sky130_fd_sc_hd__or2_4 abstract view
.subckt sky130_fd_sc_hd__or2_4 A B VGND VNB VPB VPWR X
.ends

* Black-box entry subcircuit for sky130_fd_sc_hd__nor4_1 abstract view
.subckt sky130_fd_sc_hd__nor4_1 A B C D VGND VNB VPB VPWR Y
.ends

* Black-box entry subcircuit for sky130_fd_sc_hd__a21o_2 abstract view
.subckt sky130_fd_sc_hd__a21o_2 A1 A2 B1 VGND VNB VPB VPWR X
.ends

* Black-box entry subcircuit for sky130_fd_sc_hd__a211oi_1 abstract view
.subckt sky130_fd_sc_hd__a211oi_1 A1 A2 B1 C1 VGND VNB VPB VPWR Y
.ends

* Black-box entry subcircuit for sky130_fd_sc_hd__nand2_4 abstract view
.subckt sky130_fd_sc_hd__nand2_4 A B VGND VNB VPB VPWR Y
.ends

* Black-box entry subcircuit for sky130_fd_sc_hd__or4_4 abstract view
.subckt sky130_fd_sc_hd__or4_4 A B C D VGND VNB VPB VPWR X
.ends

* Black-box entry subcircuit for sky130_fd_sc_hd__a311o_2 abstract view
.subckt sky130_fd_sc_hd__a311o_2 A1 A2 A3 B1 C1 VGND VNB VPB VPWR X
.ends

* Black-box entry subcircuit for sky130_fd_sc_hd__o221ai_1 abstract view
.subckt sky130_fd_sc_hd__o221ai_1 A1 A2 B1 B2 C1 VGND VNB VPB VPWR Y
.ends

* Black-box entry subcircuit for sky130_fd_sc_hd__o21bai_1 abstract view
.subckt sky130_fd_sc_hd__o21bai_1 A1 A2 B1_N VGND VNB VPB VPWR Y
.ends

* Black-box entry subcircuit for sky130_fd_sc_hd__nor2b_2 abstract view
.subckt sky130_fd_sc_hd__nor2b_2 A B_N VGND VNB VPB VPWR Y
.ends

* Black-box entry subcircuit for sky130_fd_sc_hd__clkinv_2 abstract view
.subckt sky130_fd_sc_hd__clkinv_2 A VGND VNB VPB VPWR Y
.ends

* Black-box entry subcircuit for sky130_fd_sc_hd__a2bb2o_1 abstract view
.subckt sky130_fd_sc_hd__a2bb2o_1 A1_N A2_N B1 B2 VGND VNB VPB VPWR X
.ends

* Black-box entry subcircuit for sky130_fd_sc_hd__clkinv_4 abstract view
.subckt sky130_fd_sc_hd__clkinv_4 A VGND VNB VPB VPWR Y
.ends

* Black-box entry subcircuit for sky130_fd_sc_hd__a21boi_2 abstract view
.subckt sky130_fd_sc_hd__a21boi_2 A1 A2 B1_N VGND VNB VPB VPWR Y
.ends

* Black-box entry subcircuit for sky130_fd_sc_hd__nand2b_2 abstract view
.subckt sky130_fd_sc_hd__nand2b_2 A_N B VGND VNB VPB VPWR Y
.ends

* Black-box entry subcircuit for sky130_fd_sc_hd__o31a_2 abstract view
.subckt sky130_fd_sc_hd__o31a_2 A1 A2 A3 B1 VGND VNB VPB VPWR X
.ends

* Black-box entry subcircuit for sky130_fd_sc_hd__a311oi_1 abstract view
.subckt sky130_fd_sc_hd__a311oi_1 A1 A2 A3 B1 C1 VGND VNB VPB VPWR Y
.ends

* Black-box entry subcircuit for sky130_fd_sc_hd__and3b_1 abstract view
.subckt sky130_fd_sc_hd__and3b_1 A_N B C VGND VNB VPB VPWR X
.ends

* Black-box entry subcircuit for sky130_fd_sc_hd__and4b_2 abstract view
.subckt sky130_fd_sc_hd__and4b_2 A_N B C D VGND VNB VPB VPWR X
.ends

* Black-box entry subcircuit for sky130_fd_sc_hd__a41o_1 abstract view
.subckt sky130_fd_sc_hd__a41o_1 A1 A2 A3 A4 B1 VGND VNB VPB VPWR X
.ends

* Black-box entry subcircuit for sky130_fd_sc_hd__or3b_2 abstract view
.subckt sky130_fd_sc_hd__or3b_2 A B C_N VGND VNB VPB VPWR X
.ends

* Black-box entry subcircuit for sky130_fd_sc_hd__nand2b_1 abstract view
.subckt sky130_fd_sc_hd__nand2b_1 A_N B VGND VNB VPB VPWR Y
.ends

* Black-box entry subcircuit for sky130_fd_sc_hd__o2bb2a_1 abstract view
.subckt sky130_fd_sc_hd__o2bb2a_1 A1_N A2_N B1 B2 VGND VNB VPB VPWR X
.ends

* Black-box entry subcircuit for sky130_fd_sc_hd__and3b_2 abstract view
.subckt sky130_fd_sc_hd__and3b_2 A_N B C VGND VNB VPB VPWR X
.ends

* Black-box entry subcircuit for sky130_fd_sc_hd__and4bb_4 abstract view
.subckt sky130_fd_sc_hd__and4bb_4 A_N B_N C D VGND VNB VPB VPWR X
.ends

* Black-box entry subcircuit for sky130_fd_sc_hd__a311o_4 abstract view
.subckt sky130_fd_sc_hd__a311o_4 A1 A2 A3 B1 C1 VGND VNB VPB VPWR X
.ends

* Black-box entry subcircuit for sky130_fd_sc_hd__o31ai_1 abstract view
.subckt sky130_fd_sc_hd__o31ai_1 A1 A2 A3 B1 VGND VNB VPB VPWR Y
.ends

* Black-box entry subcircuit for sky130_fd_sc_hd__and2_2 abstract view
.subckt sky130_fd_sc_hd__and2_2 A B VGND VNB VPB VPWR X
.ends

* Black-box entry subcircuit for sky130_fd_sc_hd__and4_1 abstract view
.subckt sky130_fd_sc_hd__and4_1 A B C D VGND VNB VPB VPWR X
.ends

* Black-box entry subcircuit for sky130_fd_sc_hd__nand2_8 abstract view
.subckt sky130_fd_sc_hd__nand2_8 A B VGND VNB VPB VPWR Y
.ends

* Black-box entry subcircuit for sky130_fd_sc_hd__o311ai_4 abstract view
.subckt sky130_fd_sc_hd__o311ai_4 A1 A2 A3 B1 C1 VGND VNB VPB VPWR Y
.ends

* Black-box entry subcircuit for sky130_fd_sc_hd__o311a_2 abstract view
.subckt sky130_fd_sc_hd__o311a_2 A1 A2 A3 B1 C1 VGND VNB VPB VPWR X
.ends

* Black-box entry subcircuit for sky130_fd_sc_hd__and4bb_2 abstract view
.subckt sky130_fd_sc_hd__and4bb_2 A_N B_N C D VGND VNB VPB VPWR X
.ends

* Black-box entry subcircuit for sky130_fd_sc_hd__a21oi_4 abstract view
.subckt sky130_fd_sc_hd__a21oi_4 A1 A2 B1 VGND VNB VPB VPWR Y
.ends

* Black-box entry subcircuit for sky130_fd_sc_hd__or2b_2 abstract view
.subckt sky130_fd_sc_hd__or2b_2 A B_N VGND VNB VPB VPWR X
.ends

* Black-box entry subcircuit for sky130_fd_sc_hd__nor4_4 abstract view
.subckt sky130_fd_sc_hd__nor4_4 A B C D VGND VNB VPB VPWR Y
.ends

* Black-box entry subcircuit for sky130_fd_sc_hd__a221oi_4 abstract view
.subckt sky130_fd_sc_hd__a221oi_4 A1 A2 B1 B2 C1 VGND VNB VPB VPWR Y
.ends

* Black-box entry subcircuit for sky130_fd_sc_hd__conb_1 abstract view
.subckt sky130_fd_sc_hd__conb_1 VGND VNB VPB VPWR HI LO
.ends

* Black-box entry subcircuit for sky130_fd_sc_hd__a211oi_4 abstract view
.subckt sky130_fd_sc_hd__a211oi_4 A1 A2 B1 C1 VGND VNB VPB VPWR Y
.ends

* Black-box entry subcircuit for sky130_fd_sc_hd__nor3_4 abstract view
.subckt sky130_fd_sc_hd__nor3_4 A B C VGND VNB VPB VPWR Y
.ends

* Black-box entry subcircuit for sky130_fd_sc_hd__nor4_2 abstract view
.subckt sky130_fd_sc_hd__nor4_2 A B C D VGND VNB VPB VPWR Y
.ends

* Black-box entry subcircuit for sky130_fd_sc_hd__a2bb2o_2 abstract view
.subckt sky130_fd_sc_hd__a2bb2o_2 A1_N A2_N B1 B2 VGND VNB VPB VPWR X
.ends

* Black-box entry subcircuit for sky130_fd_sc_hd__a211o_2 abstract view
.subckt sky130_fd_sc_hd__a211o_2 A1 A2 B1 C1 VGND VNB VPB VPWR X
.ends

* Black-box entry subcircuit for sky130_fd_sc_hd__o2111a_1 abstract view
.subckt sky130_fd_sc_hd__o2111a_1 A1 A2 B1 C1 D1 VGND VNB VPB VPWR X
.ends

* Black-box entry subcircuit for sky130_fd_sc_hd__o22a_2 abstract view
.subckt sky130_fd_sc_hd__o22a_2 A1 A2 B1 B2 VGND VNB VPB VPWR X
.ends

* Black-box entry subcircuit for sky130_fd_sc_hd__or4b_1 abstract view
.subckt sky130_fd_sc_hd__or4b_1 A B C D_N VGND VNB VPB VPWR X
.ends

* Black-box entry subcircuit for sky130_fd_sc_hd__nand3b_1 abstract view
.subckt sky130_fd_sc_hd__nand3b_1 A_N B C VGND VNB VPB VPWR Y
.ends

* Black-box entry subcircuit for sky130_fd_sc_hd__nand3_2 abstract view
.subckt sky130_fd_sc_hd__nand3_2 A B C VGND VNB VPB VPWR Y
.ends

* Black-box entry subcircuit for sky130_fd_sc_hd__a221oi_2 abstract view
.subckt sky130_fd_sc_hd__a221oi_2 A1 A2 B1 B2 C1 VGND VNB VPB VPWR Y
.ends

* Black-box entry subcircuit for sky130_fd_sc_hd__and4_4 abstract view
.subckt sky130_fd_sc_hd__and4_4 A B C D VGND VNB VPB VPWR X
.ends

* Black-box entry subcircuit for sky130_fd_sc_hd__nor3b_2 abstract view
.subckt sky130_fd_sc_hd__nor3b_2 A B C_N VGND VNB VPB VPWR Y
.ends

* Black-box entry subcircuit for sky130_fd_sc_hd__o221a_2 abstract view
.subckt sky130_fd_sc_hd__o221a_2 A1 A2 B1 B2 C1 VGND VNB VPB VPWR X
.ends

.subckt password_cracker VGND VPWR clk cracked done hash[0] hash[100] hash[101] hash[102]
+ hash[103] hash[104] hash[105] hash[106] hash[107] hash[108] hash[109] hash[10] hash[110]
+ hash[111] hash[112] hash[113] hash[114] hash[115] hash[116] hash[117] hash[118]
+ hash[119] hash[11] hash[120] hash[121] hash[122] hash[123] hash[124] hash[125] hash[126]
+ hash[127] hash[128] hash[129] hash[12] hash[130] hash[131] hash[132] hash[133] hash[134]
+ hash[135] hash[136] hash[137] hash[138] hash[139] hash[13] hash[140] hash[141] hash[142]
+ hash[143] hash[144] hash[145] hash[146] hash[147] hash[148] hash[149] hash[14] hash[150]
+ hash[151] hash[152] hash[153] hash[154] hash[155] hash[156] hash[157] hash[158]
+ hash[159] hash[15] hash[160] hash[161] hash[162] hash[163] hash[164] hash[165] hash[166]
+ hash[167] hash[168] hash[169] hash[16] hash[170] hash[171] hash[172] hash[173] hash[174]
+ hash[175] hash[176] hash[177] hash[178] hash[179] hash[17] hash[180] hash[181] hash[182]
+ hash[183] hash[184] hash[185] hash[186] hash[187] hash[188] hash[189] hash[18] hash[190]
+ hash[191] hash[192] hash[193] hash[194] hash[195] hash[196] hash[197] hash[198]
+ hash[199] hash[19] hash[1] hash[200] hash[201] hash[202] hash[203] hash[204] hash[205]
+ hash[206] hash[207] hash[208] hash[209] hash[20] hash[210] hash[211] hash[212] hash[213]
+ hash[214] hash[215] hash[216] hash[217] hash[218] hash[219] hash[21] hash[220] hash[221]
+ hash[222] hash[223] hash[224] hash[225] hash[226] hash[227] hash[228] hash[229]
+ hash[22] hash[230] hash[231] hash[232] hash[233] hash[234] hash[235] hash[236] hash[237]
+ hash[238] hash[239] hash[23] hash[240] hash[241] hash[242] hash[243] hash[244] hash[245]
+ hash[246] hash[247] hash[248] hash[249] hash[24] hash[250] hash[251] hash[252] hash[253]
+ hash[254] hash[255] hash[25] hash[26] hash[27] hash[28] hash[29] hash[2] hash[30]
+ hash[31] hash[32] hash[33] hash[34] hash[35] hash[36] hash[37] hash[38] hash[39]
+ hash[3] hash[40] hash[41] hash[42] hash[43] hash[44] hash[45] hash[46] hash[47]
+ hash[48] hash[49] hash[4] hash[50] hash[51] hash[52] hash[53] hash[54] hash[55]
+ hash[56] hash[57] hash[58] hash[59] hash[5] hash[60] hash[61] hash[62] hash[63]
+ hash[64] hash[65] hash[66] hash[67] hash[68] hash[69] hash[6] hash[70] hash[71]
+ hash[72] hash[73] hash[74] hash[75] hash[76] hash[77] hash[78] hash[79] hash[7]
+ hash[80] hash[81] hash[82] hash[83] hash[84] hash[85] hash[86] hash[87] hash[88]
+ hash[89] hash[8] hash[90] hash[91] hash[92] hash[93] hash[94] hash[95] hash[96]
+ hash[97] hash[98] hash[99] hash[9] init password_count[0] password_count[10] password_count[11]
+ password_count[12] password_count[13] password_count[14] password_count[15] password_count[16]
+ password_count[17] password_count[18] password_count[19] password_count[1] password_count[20]
+ password_count[21] password_count[22] password_count[23] password_count[24] password_count[25]
+ password_count[26] password_count[27] password_count[28] password_count[29] password_count[2]
+ password_count[30] password_count[31] password_count[3] password_count[4] password_count[5]
+ password_count[6] password_count[7] password_count[8] password_count[9] reset
XFILLER_79_391 VGND VGND VPWR VPWR sky130_fd_sc_hd__fill_1
XFILLER_95_895 VGND VGND VPWR VPWR sky130_fd_sc_hd__fill_1
X_09671_ _04044_ VGND VGND VPWR VPWR _04045_ sky130_fd_sc_hd__buf_2
XFILLER_67_564 VGND VGND VPWR VPWR sky130_fd_sc_hd__decap_8
X_06883_ _01576_ VGND VGND VPWR VPWR _01577_ sky130_fd_sc_hd__buf_6
XFILLER_36_19 VGND VGND VPWR VPWR sky130_fd_sc_hd__fill_2
X_08622_ sha256cu.m_out_digest.c_in\[6\] _03181_ _03180_ sha256cu.m_out_digest.b_in\[6\]
+ VGND VGND VPWR VPWR _00165_ sky130_fd_sc_hd__o22a_1
X_08553_ _03117_ _03119_ VGND VGND VPWR VPWR _03152_ sky130_fd_sc_hd__and2b_1
X_07504_ sha256cu.m_out_digest.h_in\[3\] _02130_ VGND VGND VPWR VPWR _02131_ sky130_fd_sc_hd__xnor2_1
XFILLER_82_589 VGND VGND VPWR VPWR sky130_ef_sc_hd__decap_12
X_08484_ sha256cu.m_out_digest.h_in\[28\] _03042_ _03084_ VGND VGND VPWR VPWR _03085_
+ sky130_fd_sc_hd__a21bo_1
XFILLER_63_781 VGND VGND VPWR VPWR sky130_fd_sc_hd__decap_3
X_07435_ _02005_ _02015_ VGND VGND VPWR VPWR _02064_ sky130_fd_sc_hd__nor2_4
XFILLER_149_853 VGND VGND VPWR VPWR sky130_ef_sc_hd__decap_12
X_07366_ _01986_ VGND VGND VPWR VPWR _02002_ sky130_fd_sc_hd__buf_4
XFILLER_149_897 VGND VGND VPWR VPWR sky130_ef_sc_hd__decap_12
XFILLER_148_363 VGND VGND VPWR VPWR sky130_fd_sc_hd__fill_1
X_09105_ _03588_ _03589_ VGND VGND VPWR VPWR _03591_ sky130_fd_sc_hd__and2_1
X_07297_ sha256cu.m_pad_pars.add_512_block\[1\] _01939_ VGND VGND VPWR VPWR _01941_
+ sky130_fd_sc_hd__or2_2
X_09036_ _03489_ _03505_ _03524_ VGND VGND VPWR VPWR _03525_ sky130_fd_sc_hd__and3_1
XFILLER_151_517 VGND VGND VPWR VPWR sky130_ef_sc_hd__decap_12
XFILLER_136_569 VGND VGND VPWR VPWR sky130_fd_sc_hd__decap_8
XFILLER_104_400 VGND VGND VPWR VPWR sky130_fd_sc_hd__fill_1
XFILLER_7_7 VGND VGND VPWR VPWR sky130_ef_sc_hd__decap_12
XFILLER_2_516 VGND VGND VPWR VPWR sky130_fd_sc_hd__fill_2
XFILLER_132_742 VGND VGND VPWR VPWR sky130_ef_sc_hd__decap_12
XFILLER_104_433 VGND VGND VPWR VPWR sky130_fd_sc_hd__fill_2
XFILLER_77_15 VGND VGND VPWR VPWR sky130_ef_sc_hd__decap_12
XFILLER_2_549 VGND VGND VPWR VPWR sky130_fd_sc_hd__fill_2
X_09938_ sha256cu.msg_scheduler.mreg_1\[8\] _04174_ VGND VGND VPWR VPWR _04201_ sky130_fd_sc_hd__or2_1
XFILLER_104_477 VGND VGND VPWR VPWR sky130_ef_sc_hd__decap_12
X_09869_ sha256cu.msg_scheduler.mreg_13\[20\] _04147_ VGND VGND VPWR VPWR _04159_
+ sky130_fd_sc_hd__or2_1
XTAP_2501 VGND VPWR sky130_fd_sc_hd__tapvpwrvgnd_1
X_11900_ _05718_ _05719_ VGND VGND VPWR VPWR _05720_ sky130_fd_sc_hd__nor2_1
XFILLER_45_225 VGND VGND VPWR VPWR sky130_fd_sc_hd__decap_6
X_12880_ sha256cu.m_pad_pars.block_512\[31\]\[0\] _06425_ VGND VGND VPWR VPWR _06426_
+ sky130_fd_sc_hd__and2_1
XANTENNA_213 net199 VGND VGND VPWR VPWR sky130_fd_sc_hd__diode_2
XTAP_2545 VGND VPWR sky130_fd_sc_hd__tapvpwrvgnd_1
XTAP_2534 VGND VPWR sky130_fd_sc_hd__tapvpwrvgnd_1
XTAP_2523 VGND VPWR sky130_fd_sc_hd__tapvpwrvgnd_1
XTAP_2512 VGND VPWR sky130_fd_sc_hd__tapvpwrvgnd_1
X_11831_ _05651_ _05653_ VGND VGND VPWR VPWR _05654_ sky130_fd_sc_hd__nand2_1
XTAP_1800 VGND VPWR sky130_fd_sc_hd__tapvpwrvgnd_1
XANTENNA_202 net198 VGND VGND VPWR VPWR sky130_fd_sc_hd__diode_2
XANTENNA_224 net201 VGND VGND VPWR VPWR sky130_fd_sc_hd__diode_2
XFILLER_26_41 VGND VGND VPWR VPWR sky130_ef_sc_hd__decap_12
XTAP_2578 VGND VPWR sky130_fd_sc_hd__tapvpwrvgnd_1
XTAP_2567 VGND VPWR sky130_fd_sc_hd__tapvpwrvgnd_1
XTAP_2556 VGND VPWR sky130_fd_sc_hd__tapvpwrvgnd_1
XTAP_1833 VGND VPWR sky130_fd_sc_hd__tapvpwrvgnd_1
XTAP_1811 VGND VPWR sky130_fd_sc_hd__tapvpwrvgnd_1
XTAP_1822 VGND VPWR sky130_fd_sc_hd__tapvpwrvgnd_1
XANTENNA_257 net227 VGND VGND VPWR VPWR sky130_fd_sc_hd__diode_2
XFILLER_60_217 VGND VGND VPWR VPWR sky130_fd_sc_hd__decap_8
XANTENNA_246 net227 VGND VGND VPWR VPWR sky130_fd_sc_hd__diode_2
XFILLER_54_770 VGND VGND VPWR VPWR sky130_fd_sc_hd__fill_1
X_14550_ clknet_leaf_111_clk _01064_ VGND VGND VPWR VPWR sha256cu.m_pad_pars.block_512\[15\]\[7\]
+ sky130_fd_sc_hd__dfxtp_1
XANTENNA_268 net253 VGND VGND VPWR VPWR sky130_fd_sc_hd__diode_2
XANTENNA_235 net206 VGND VGND VPWR VPWR sky130_fd_sc_hd__diode_2
XTAP_2589 VGND VPWR sky130_fd_sc_hd__tapvpwrvgnd_1
X_11762_ _05586_ _05566_ _05587_ VGND VGND VPWR VPWR _05588_ sky130_fd_sc_hd__a21oi_1
XANTENNA_279 net18 VGND VGND VPWR VPWR sky130_fd_sc_hd__diode_2
XTAP_1866 VGND VPWR sky130_fd_sc_hd__tapvpwrvgnd_1
XTAP_1855 VGND VPWR sky130_fd_sc_hd__tapvpwrvgnd_1
XTAP_1844 VGND VPWR sky130_fd_sc_hd__tapvpwrvgnd_1
XFILLER_13_111 VGND VGND VPWR VPWR sky130_fd_sc_hd__fill_1
XFILLER_26_85 VGND VGND VPWR VPWR sky130_fd_sc_hd__decap_6
X_13501_ _01975_ _06764_ VGND VGND VPWR VPWR _06765_ sky130_fd_sc_hd__and2_1
X_11693_ _05492_ _05507_ _05520_ VGND VGND VPWR VPWR _05522_ sky130_fd_sc_hd__nand3_1
X_10713_ sha256cu.msg_scheduler.mreg_11\[21\] _04640_ VGND VGND VPWR VPWR _04643_
+ sky130_fd_sc_hd__or2_1
XTAP_1899 VGND VPWR sky130_fd_sc_hd__tapvpwrvgnd_1
XTAP_1888 VGND VPWR sky130_fd_sc_hd__tapvpwrvgnd_1
XTAP_1877 VGND VPWR sky130_fd_sc_hd__tapvpwrvgnd_1
X_14481_ clknet_leaf_7_clk _00995_ VGND VGND VPWR VPWR sha256cu.m_pad_pars.block_512\[7\]\[2\]
+ sky130_fd_sc_hd__dfxtp_1
X_10644_ sha256cu.msg_scheduler.mreg_10\[23\] _04601_ VGND VGND VPWR VPWR _04604_
+ sky130_fd_sc_hd__or2_1
XFILLER_9_137 VGND VGND VPWR VPWR sky130_ef_sc_hd__decap_12
X_13432_ _06721_ VGND VGND VPWR VPWR _01441_ sky130_fd_sc_hd__clkbuf_1
XFILLER_139_352 VGND VGND VPWR VPWR sky130_fd_sc_hd__fill_1
X_10575_ sha256cu.msg_scheduler.mreg_8\[25\] _04554_ _04564_ _04557_ VGND VGND VPWR
+ VPWR _00741_ sky130_fd_sc_hd__o211a_1
X_13363_ _01923_ VGND VGND VPWR VPWR _06682_ sky130_fd_sc_hd__buf_2
X_12314_ _05448_ _06115_ _06116_ VGND VGND VPWR VPWR _06117_ sky130_fd_sc_hd__o21ai_1
XFILLER_108_750 VGND VGND VPWR VPWR sky130_fd_sc_hd__decap_6
X_13294_ _06646_ VGND VGND VPWR VPWR _01378_ sky130_fd_sc_hd__clkbuf_1
XFILLER_107_271 VGND VGND VPWR VPWR sky130_fd_sc_hd__decap_8
X_12245_ sha256cu.data_in_padd\[27\] _05447_ _04053_ VGND VGND VPWR VPWR _06051_ sky130_fd_sc_hd__a21o_1
XFILLER_5_398 VGND VGND VPWR VPWR sky130_ef_sc_hd__decap_12
XFILLER_111_904 VGND VGND VPWR VPWR sky130_fd_sc_hd__decap_4
X_12176_ _05967_ _05984_ _05432_ VGND VGND VPWR VPWR _05985_ sky130_fd_sc_hd__a21oi_1
XFILLER_68_317 VGND VGND VPWR VPWR sky130_fd_sc_hd__decap_8
X_11127_ sha256cu.m_pad_pars.block_512\[46\]\[0\] _04977_ _04981_ sha256cu.m_pad_pars.block_512\[54\]\[0\]
+ _04985_ VGND VGND VPWR VPWR _04986_ sky130_fd_sc_hd__a221o_1
XFILLER_95_147 VGND VGND VPWR VPWR sky130_fd_sc_hd__fill_1
XFILLER_95_125 VGND VGND VPWR VPWR sky130_fd_sc_hd__fill_1
XFILLER_110_469 VGND VGND VPWR VPWR sky130_fd_sc_hd__decap_6
XFILLER_77_873 VGND VGND VPWR VPWR sky130_fd_sc_hd__decap_3
XFILLER_67_81 VGND VGND VPWR VPWR sky130_ef_sc_hd__decap_12
X_11058_ _04808_ _04794_ VGND VGND VPWR VPWR _04918_ sky130_fd_sc_hd__nor2_1
X_10009_ _04133_ VGND VGND VPWR VPWR _04241_ sky130_fd_sc_hd__clkbuf_2
XFILLER_49_597 VGND VGND VPWR VPWR sky130_fd_sc_hd__decap_6
X_14817_ clknet_leaf_103_clk _01331_ VGND VGND VPWR VPWR sha256cu.m_pad_pars.block_512\[49\]\[2\]
+ sky130_fd_sc_hd__dfxtp_1
X_14748_ clknet_leaf_126_clk _01262_ VGND VGND VPWR VPWR sha256cu.m_pad_pars.block_512\[40\]\[5\]
+ sky130_fd_sc_hd__dfxtp_1
XFILLER_149_105 VGND VGND VPWR VPWR sky130_fd_sc_hd__decap_6
XFILLER_60_773 VGND VGND VPWR VPWR sky130_fd_sc_hd__decap_3
X_14679_ clknet_leaf_119_clk _01193_ VGND VGND VPWR VPWR sha256cu.m_pad_pars.block_512\[32\]\[0\]